## Copyright:: Nokia Corporation 2017
## Note: Nokia VM HOT file for CFX-5000 IMS17.0
## Name: "base_cscf.env"
## History
##	Date: 23 Aug 2017 
##		1. corrected the flavour 
##  	2. internal ip range  to match the TPD for all VMs
##  	3. number of internal ip assignment in list 
##				a) cscf_internal_zone_0_ips
##				b) cscf_internal_zone_1_ips
##				c) cscf_internal_zone_0_v6_ips
##				d) cscf_internal_zone_1_v6_ips
##				e) tdcore_internal_zone_0_ips
##				f) tdcore_internal_zone_1_ips
##		 to match the count of cscf and tdcore.
##	
## Kilo Version

parameters:
# PSEUDO CONSTANTS
# -----------------------------------------------------------------------------
  vcscf_release: "17.0"
  vcscf_name_delimeter: "_"
  vcscf_internal_network_mtu: 1500

  oam_image_name: IMS_17_0_OPENSTACK_OAM_1701400.000
  cif_image_name: IMS_17_0_OPENSTACK_CSCF_1701400.000
  lbd_image_name: IMS_17_0_OPENSTACK_CSCF_1701400.000
  cdi_image_name: IMS_17_0_OPENSTACK_CSCF_1701400.000
  cscf_image_name: IMS_17_0_OPENSTACK_CSCF_1701400.000
  tdcore_image_name: IMS_17_0_OPENSTACK_CSCF_1701400.000

  oam_flavor_name: ND.c4r32d30
  cscf_flavor_name: ND.c8r16d38
  cif_flavor_name: ND.c4r16d38
  lbd_flavor_name: ND.c4r16d38
  tdcore_flavor_name: ND.c4r16d38
  cdi_flavor_name: ND.c4r8d38
  

  # vCSCF VM Counts

  cscf_zone_0_count: 19
  cscf_zone_1_count: 18
  tdcore_zone_0_count: 4
  tdcore_zone_1_count: 4


  # vCSCF Internal Network

  vcscf_internal_netmask: 255.255.255.0
  vcscf_internal_network_cidr: 192.168.210.0/24
  vcscf_internal_network_v6_cidr: 2a00:9a00:a000:1190:0:1:1:2b00/120
  vcscf_internal_dpdk_network_cidr: 192.168.211.0/24
  
  # OAM Internal network

  oam_internal_vip_0: 192.168.210.3
  oam_internal_ip_0: 192.168.210.136
  oam_internal_ip_1: 192.168.210.137
  oam_internal_ip_2: 192.168.210.138

  # CSCF VM Internal Network

  cscf_internal_zone_0_ips:
    - 192.168.210.16
    - 192.168.210.18
    - 192.168.210.20
    - 192.168.210.22
    - 192.168.210.24
    - 192.168.210.26
    - 192.168.210.28
    - 192.168.210.30
    - 192.168.210.32
    - 192.168.210.34
    - 192.168.210.36
    - 192.168.210.38
    - 192.168.210.40
    - 192.168.210.42
    - 192.168.210.44
    - 192.168.210.46
    - 192.168.210.48
    - 192.168.210.50
    - 192.168.210.52

  cscf_internal_zone_1_ips:
    - 192.168.210.17
    - 192.168.210.19
    - 192.168.210.21
    - 192.168.210.23
    - 192.168.210.25
    - 192.168.210.27
    - 192.168.210.29
    - 192.168.210.31
    - 192.168.210.33
    - 192.168.210.35
    - 192.168.210.37
    - 192.168.210.39
    - 192.168.210.41
    - 192.168.210.43
    - 192.168.210.45
    - 192.168.210.47
    - 192.168.210.49
    - 192.168.210.51
  cscf_internal_zone_0_v6_ips:
    - "2a00:9a00:a000:1190:0:1:1:2b10"
    - "2a00:9a00:a000:1190:0:1:1:2b12"
    - "2a00:9a00:a000:1190:0:1:1:2b14"
    - "2a00:9a00:a000:1190:0:1:1:2b16"
    - "2a00:9a00:a000:1190:0:1:1:2b18"
    - "2a00:9a00:a000:1190:0:1:1:2b1a"
    - "2a00:9a00:a000:1190:0:1:1:2b1c"
    - "2a00:9a00:a000:1190:0:1:1:2b1e"
    - "2a00:9a00:a000:1190:0:1:1:2b20"
    - "2a00:9a00:a000:1190:0:1:1:2b22"
    - "2a00:9a00:a000:1190:0:1:1:2b24"
    - "2a00:9a00:a000:1190:0:1:1:2b26"
    - "2a00:9a00:a000:1190:0:1:1:2b28"
    - "2a00:9a00:a000:1190:0:1:1:2b2a"
    - "2a00:9a00:a000:1190:0:1:1:2b2c"
    - "2a00:9a00:a000:1190:0:1:1:2b2e"
    - "2a00:9a00:a000:1190:0:1:1:2b30"
    - "2a00:9a00:a000:1190:0:1:1:2b32"
    - "2a00:9a00:a000:1190:0:1:1:2b34"

  cscf_internal_zone_1_v6_ips:
    - "2a00:9a00:a000:1190:0:1:1:2b11"
    - "2a00:9a00:a000:1190:0:1:1:2b13"
    - "2a00:9a00:a000:1190:0:1:1:2b15"
    - "2a00:9a00:a000:1190:0:1:1:2b17"
    - "2a00:9a00:a000:1190:0:1:1:2b19"
    - "2a00:9a00:a000:1190:0:1:1:2b1b"
    - "2a00:9a00:a000:1190:0:1:1:2b1d"
    - "2a00:9a00:a000:1190:0:1:1:2b1f"
    - "2a00:9a00:a000:1190:0:1:1:2b21"
    - "2a00:9a00:a000:1190:0:1:1:2b23"
    - "2a00:9a00:a000:1190:0:1:1:2b25"
    - "2a00:9a00:a000:1190:0:1:1:2b27"
    - "2a00:9a00:a000:1190:0:1:1:2b29"
    - "2a00:9a00:a000:1190:0:1:1:2b2b"
    - "2a00:9a00:a000:1190:0:1:1:2b2d"
    - "2a00:9a00:a000:1190:0:1:1:2b2f"
    - "2a00:9a00:a000:1190:0:1:1:2b31"
    - "2a00:9a00:a000:1190:0:1:1:2b33"

  # TDCore VM Internal Network
  
  tdcore_internal_zone_0_ips:
    - 192.168.210.8
    - 192.168.210.10
    - 192.168.210.12
    - 192.168.210.14

  tdcore_internal_zone_1_ips:
    - 192.168.210.9
    - 192.168.210.11
    - 192.168.210.13
    - 192.168.210.15
  # TDCore VM DPDK Internal Network
  
  tdcore_dpdk_zone_0_ips:
    - 192.168.211.8
    - 192.168.211.10
    - 192.168.211.12
    - 192.168.211.14

  tdcore_dpdk_zone_1_ips:
    - 192.168.211.9
    - 192.168.211.11
    - 192.168.211.13
    - 192.168.211.15

  # CIF VM Internal Network
  
  cif_internal_ip_0: 192.168.210.1
  cif_internal_ip_1: 192.168.210.2
  cif_internal_vip_0: 192.168.210.150
  cif_internal_v6_ip_0: "2a00:9a00:a000:1190:0:1:1:2b04"
  cif_internal_v6_ip_1: "2a00:9a00:a000:1190:0:1:1:2b05"

  # LBD (l2TD) VM Internal Network

  lbd_internal_ip_0: 192.168.210.4
  lbd_internal_ip_1: 192.168.210.5

  # LBD (l2TD) VM DPDK Internal Network

  lbd_internal_dpdk_ip_0: 192.168.211.1
  lbd_internal_dpdk_ip_1: 192.168.211.2
  lbd_internal_dpdk_vip_0: 192.168.211.181

  # CDI VM Internal Network

  cdi_internal_ip_0: 192.168.210.139
  cdi_internal_ip_1: 192.168.210.140
  

  cdi_internal_v6_ip_0: "2a00:9a00:a000:1190:0:1:1:2b8b"
  cdi_internal_v6_ip_1: "2a00:9a00:a000:1190:0:1:1:2b8c"
  cdi_internal_v6_vip_0: "2a00:9a00:a000:1190:0:1:1:2b8d"

# SITE SPECIFIC
# -----------------------------------------------------------------------------
#  oam_volume_id_0: f0781f87-671c-40c0-82ce-4d8c0531fbc1
#  oam_volume_id_1: 53a1d529-47a1-4722-bab0-d502603eef14
#  cif_volume_id_0: d2262ef6-7bac-4c4e-abfb-fd78e3f0cc0b
#  cif_volume_id_1: b1f6f2bc-6774-4c66-88ef-cb225d216bf0
#
#
#------------------------------------
#  Preload Sheet
#------------------------------------
#  # Network IDs
#  oam_net_id: LAN1
#  ims_core_net_id: ipv6_1256
#  ims_li_v6_net_id: ipv6_1255
#
#  # instance availability zones for 1+1 pairs
#  availability_zone_0: zone1
#  availability_zone_1: zone2
#
#  cif_oam_ip_0: 192.168.1.26
#  cif_oam_ip_1: 192.168.1.27
#
# Tag Value
#  cif_oam_vip_0: 192.168.1.28
#
#  cif_ims_core_v6_ip_0: "2a00:8a00:a000:4000::308"
#  cif_ims_core_v6_ip_1: "2a00:8a00:a000:4000::309"
#  cif_ims_core_v6_vip_0: "2a00:8a00:a000:4000::310"
#
#  # Seperated Interface for LI-X1 (eth3)
#  cif_oam_ip_2: 192.168.1.29
#  cif_oam_ip_3: 192.168.1.30
#
# Tag Value
#  cif_oam_vip_1: 192.168.1.31
#
#  # Seperated Interface for LI-X2 (eth4)
#
#  cif_ims_li_v6_ip_0: "2a00:8a00:a000:4000::284"
#  cif_ims_li_v6_ip_1: "2a00:8a00:a000:4000::285"
#  cif_ims_li_v6_vip_0: "2a00:8a00:a000:4000::286"
#
#
#  lbd_ims_core_v6_ip_0: "2a00:8a00:a000:4000::311"
#  lbd_ims_core_v6_ip_1: "2a00:8a00:a000:4000::312"
#  lbd_ims_core_v6_vip_0: "2a00:8a00:a000:4000::313"
#
#
#  cdi_ims_core_v6_ip_0: "2a00:8a00:a000:4000::314"
#  cdi_ims_core_v6_ip_1: "2a00:8a00:a000:4000::315"
#  cdi_ims_core_v6_vip_0: "2a00:8a00:a000:4000::316"
#
#  oam_name_0: cscf0011vm001oam001
#  oam_name_1: cscf0011vm002oam001
#  oam_name_2: cscf0011vm003oam001
#  cif_name_0: cscf0011vm004cif001
#  cif_name_1: cscf0011vm005cif001
#  cdi_name_0: cscf0011vm006cdi001
#  cdi_name_1: cscf0011vm007cdi001
#  lbd_name_0: cscf0011vm008lbd001
#  lbd_name_1: cscf0011vm009lbd001
#
#------------------------------------
#  Tag values
#------------------------------------
#
#  vcscf_dn: DN1
#  vcscf_du: DU1
#  vcscf_cmrepo_address: 10.111.12.71
#  vcscf_swrepo_address: 10.111.12.71
#  vcscf_dns_address: 10.111.12.67
#
#  vnf_name: CSCF0001
#  vnf_id: CSCF0001
#  vf_module_name: CSCF0001
#  vf_module_id: CSCF0001
#
#  vcscf_oam_netmask: 255.255.255.0
#  vcscf_default_gateway: 192.168.1.1
#
#  oam_oam_vip_0: 192.168.1.21
#  oam_oam_ip_0: 192.168.1.23
#  oam_oam_ip_1: 192.168.1.24
#  oam_oam_ip_2: 192.168.1.25
#
#  tdcore_zone_0_names:
#    - cscf0011vm101sip001
#    - cscf0011vm103sip001
#    - cscf0011vm105sip001
#    - cscf0011vm107sip001
#
#  tdcore_zone_1_names:
#    - cscf0011vm102sip001
#    - cscf0011vm104sip001
#    - cscf0011vm106sip001
#    - cscf0011vm108sip001
#
#  cscf_zone_0_names:
#    - cscf0011vm201scf001
#    - cscf0011vm203scf001
#    - cscf0011vm205scf001
#    - cscf0011vm207scf001
#    - cscf0011vm209scf001
#    - cscf0011vm211scf001
#    - cscf0011vm213scf001
#    - cscf0011vm215scf001
#    - cscf0011vm217scf001
#    - cscf0011vm219scf001
#    - cscf0011vm221scf001
#    - cscf0011vm223scf001
#    - cscf0011vm225scf001
#    - cscf0011vm227scf001
#    - cscf0011vm229scf001
#    - cscf0011vm231scf001
#    - cscf0011vm233scf001
#    - cscf0011vm235scf001
#    - cscf0011vm237scf001
#
#  cscf_zone_1_names:
#    - cscf0011vm202scf001
#    - cscf0011vm204scf001
#    - cscf0011vm206scf001
#    - cscf0011vm208scf001
#    - cscf0011vm210scf001
#    - cscf0011vm212scf001
#    - cscf0011vm214scf001
#    - cscf0011vm216scf001
#    - cscf0011vm218scf001
#    - cscf0011vm220scf001
#    - cscf0011vm222scf001
#    - cscf0011vm224scf001
#    - cscf0011vm226scf001
#    - cscf0011vm228scf001
#    - cscf0011vm230scf001
#    - cscf0011vm232scf001
#    - cscf0011vm234scf001
#    - cscf0011vm236scf001
#
#  # Below value should be taken from CMRepo after parsing the TPD or the below names should be used while parsing TPD as input
#
#  oam_uuid_0:  cscf0011vm001oam001
#  oam_uuid_1:  cscf0011vm002oam001
#  oam_uuid_2:  cscf0011vm003oam001
#  cif_uuid_0:  cscf0011vm004cif001
#  cif_uuid_1:  cscf0011vm005cif001
#  lbd_uuid_0:  cscf0011vm006cdi001
#  lbd_uuid_1:  cscf0011vm007cdi001
#  cdi_uuid_0:  cscf0011vm008lbd001
#  cdi_uuid_1:  cscf0011vm009lbd001
#
#  tdcore_zone_0_uuids:
#    - cscf0011vm101sip001
#    - cscf0011vm103sip001
#    - cscf0011vm105sip001
#    - cscf0011vm107sip001
#
#  tdcore_zone_1_uuids:
#    - cscf0011vm102sip001
#    - cscf0011vm104sip001
#    - cscf0011vm106sip001
#    - cscf0011vm108sip001
#
#  cscf_zone_0_uuids:
#    - cscf0011vm201scf001
#    - cscf0011vm203scf001
#    - cscf0011vm205scf001
#    - cscf0011vm207scf001
#    - cscf0011vm209scf001
#    - cscf0011vm211scf001
#    - cscf0011vm213scf001
#    - cscf0011vm215scf001
#    - cscf0011vm217scf001
#    - cscf0011vm219scf001
#    - cscf0011vm221scf001
#    - cscf0011vm223scf001
#    - cscf0011vm225scf001
#    - cscf0011vm227scf001
#    - cscf0011vm229scf001
#    - cscf0011vm231scf001
#    - cscf0011vm233scf001
#    - cscf0011vm235scf001
#    - cscf0011vm237scf001
#
#  cscf_zone_1_uuids:
#    - cscf0011vm202scf001
#    - cscf0011vm204scf001
#    - cscf0011vm206scf001
#    - cscf0011vm208scf001
#    - cscf0011vm210scf001
#    - cscf0011vm212scf001
#    - cscf0011vm214scf001
#    - cscf0011vm216scf001
#    - cscf0011vm218scf001
#    - cscf0011vm220scf001
#    - cscf0011vm222scf001
#    - cscf0011vm224scf001
#    - cscf0011vm226scf001
#    - cscf0011vm228scf001
#    - cscf0011vm230scf001
#    - cscf0011vm232scf001
#    - cscf0011vm234scf001
#    - cscf0011vm236scf001


